@<TRIPOS>MOLECULE
MOL
    6     5     1     0     0
SMALL
bcc


@<TRIPOS>ATOM
      1 C           -0.1500     0.4840    -0.0440 ex         1 MOL       0.656900
      2 N            1.1820     0.3740    -0.2330 ey         1 MOL      -0.688000
      3 H            1.8020     1.1840    -0.0810 ez         1 MOL       0.307500
      4 H1           1.5880    -0.5240    -0.5320 ez         1 MOL       0.307500
      5 O           -0.6350     1.5470     0.3100 fa         1 MOL      -0.610100
      6 H2          -0.7940    -0.3740    -0.2070 fb         1 MOL       0.026200
@<TRIPOS>BOND
     1     1     2 1   
     2     2     3 1   
     3     2     4 1   
     4     1     5 2   
     5     1     6 1   
@<TRIPOS>SUBSTRUCTURE
     1 MOL         1 TEMP              0 ****  ****    0 ROOT
