@<TRIPOS>MOLECULE
MOL
    9     9     1     0     0
SMALL
bcc


@<TRIPOS>ATOM
      1 C            3.2080     1.1500     1.6960 ea         1 MOL      -0.264300
      2 C1           4.4820     1.5880     2.1320 ea         1 MOL      -0.264300
      3 C2           4.4010     1.6960     3.5010 eb         1 MOL       0.234600
      4 C3           2.4390     1.0200     2.8290 eb         1 MOL       0.234600
      5 O            3.1600     1.3520     3.9320 ec         1 MOL      -0.365800
      6 H            2.8880     0.9520     0.6830 ef         1 MOL       0.161000
      7 H1           1.4170     0.7200     3.0130 eg         1 MOL       0.052100
      8 H2           5.3510     1.8000     1.5260 ef         1 MOL       0.161000
      9 H3           5.0990     1.9880     4.2730 eg         1 MOL       0.052100
@<TRIPOS>BOND
     1     1     2 1   
     2     2     3 2   
     3     1     4 2   
     4     4     5 1   
     5     5     3 1   
     6     1     6 1   
     7     4     7 1   
     8     2     8 1   
     9     3     9 1   
@<TRIPOS>SUBSTRUCTURE
     1 MOL         1 TEMP              0 ****  ****    0 ROOT
